<edges>
    <edge id="J1_J2" from="J1" to="J2" numLanes="2" speed="13.9"/>
    <edge id="J2_J1" from="J2" to="J1" numLanes="2" speed="13.9"/>

    <edge id="J2_J3" from="J2" to="J3" numLanes="2" speed="13.9"/>
    <edge id="J3_J2" from="J3" to="J2" numLanes="2" speed="13.9"/>

    <edge id="J4_J3" from="J4" to="J3" numLanes="2" speed="13.9"/>
    <edge id="J3_J4" from="J3" to="J4" numLanes="2" speed="13.9"/>

    <edge id="J1_J4" from="J1" to="J4" numLanes="2" speed="13.9"/>
    <edge id="J4_J1" from="J4" to="J1" numLanes="2" speed="13.9"/>

    <edge id="1_J1" from="1" to="J1" numLanes="2" speed="13.9"/>
    <edge id="J1_1" from="J1" to="1" numLanes="2" speed="13.9"/>

    <edge id="2_J1" from="2" to="J1" numLanes="2" speed="13.9"/>
    <edge id="J1_2" from="J1" to="2" numLanes="2" speed="13.9"/>

    <edge id="3_J2" from="3" to="J2" numLanes="2" speed="13.9"/>
    <edge id="J2_3" from="J2" to="3" numLanes="2" speed="13.9"/>

    <edge id="4_J2" from="4" to="J2" numLanes="2" speed="13.9"/>
    <edge id="J2_4" from="J2" to="4" numLanes="2" speed="13.9"/>

    <edge id="5_J3" from="5" to="J3" numLanes="2" speed="13.9"/>
    <edge id="J3_5" from="J3" to="5" numLanes="2" speed="13.9"/>

    <edge id="6_J3" from="6" to="J3" numLanes="2" speed="13.9"/>
    <edge id="J3_6" from="J3" to="6" numLanes="2" speed="13.9"/>

    <edge id="7_J4" from="7" to="J4" numLanes="2" speed="13.9"/>
    <edge id="J4_7" from="J4" to="7" numLanes="2" speed="13.9"/>

    <edge id="8_J4" from="8" to="J4" numLanes="2" speed="13.9"/>
    <edge id="J4_8" from="J4" to="8" numLanes="2" speed="13.9"/>
</edges>
