<connections>
    <connection from="1_J1"  to="J1_2" fromLane="0" toLane="0" tl="J1" linkIndex="0"/>
    <connection from="1_J1"  to="J1_J2"  fromLane="0" toLane="0" tl="J1" linkIndex="1"/>
    <connection from="1_J1"  to="J1_J2"  fromLane="1" toLane="1" tl="J1" linkIndex="2"/>
    <connection from="1_J1"  to="J1_J4" fromLane="1" toLane="1" tl="J1" linkIndex="3"/>
    <connection from="J2_J1"  to="J1_J4" fromLane="0" toLane="0" tl="J1" linkIndex="4"/>
    <connection from="J2_J1"  to="J1_1"  fromLane="0" toLane="0" tl="J1" linkIndex="5"/>
    <connection from="J2_J1"  to="J1_1"  fromLane="1" toLane="1" tl="J1" linkIndex="6"/>
    <connection from="J2_J1"  to="J1_2" fromLane="1" toLane="1" tl="J1" linkIndex="7"/>
    <connection from="J4_J1" to="J1_1"  fromLane="0" toLane="0" tl="J1" linkIndex="8"/>
    <connection from="J4_J1" to="J1_2" fromLane="0" toLane="0" tl="J1" linkIndex="9"/>
    <connection from="J4_J1" to="J1_2" fromLane="1" toLane="1" tl="J1" linkIndex="10"/>
    <connection from="J4_J1" to="J1_J2"  fromLane="1" toLane="1" tl="J1" linkIndex="11"/>
    <connection from="2_J1" to="J1_J2"  fromLane="0" toLane="0" tl="J1" linkIndex="12"/>
    <connection from="2_J1" to="J1_J4" fromLane="0" toLane="0" tl="J1" linkIndex="13"/>
    <connection from="2_J1" to="J1_J4" fromLane="1" toLane="1" tl="J1" linkIndex="14"/>
    <connection from="2_J1" to="J1_1"  fromLane="1" toLane="1" tl="J1" linkIndex="15"/>

    <connection from="J1_J2"  to="J2_3" fromLane="0" toLane="0" tl="J2" linkIndex="0"/>
    <connection from="J1_J2"  to="J2_4"  fromLane="0" toLane="0" tl="J2" linkIndex="1"/>
    <connection from="J1_J2"  to="J2_4"  fromLane="1" toLane="1" tl="J2" linkIndex="2"/>
    <connection from="J1_J2"  to="J2_J3" fromLane="1" toLane="1" tl="J2" linkIndex="3"/>
    <connection from="4_J2"  to="J2_J3" fromLane="0" toLane="0" tl="J2" linkIndex="4"/>
    <connection from="4_J2"  to="J2_J1"  fromLane="0" toLane="0" tl="J2" linkIndex="5"/>
    <connection from="4_J2"  to="J2_J1"  fromLane="1" toLane="1" tl="J2" linkIndex="6"/>
    <connection from="4_J2"  to="J2_3" fromLane="1" toLane="1" tl="J2" linkIndex="7"/>
    <connection from="J3_J2" to="J2_J1"  fromLane="0" toLane="0" tl="J2" linkIndex="8"/>
    <connection from="J3_J2" to="J2_3" fromLane="0" toLane="0" tl="J2" linkIndex="9"/>
    <connection from="J3_J2" to="J2_3" fromLane="1" toLane="1" tl="J2" linkIndex="10"/>
    <connection from="J3_J2" to="J2_4"  fromLane="1" toLane="1" tl="J2" linkIndex="11"/>
    <connection from="3_J2" to="J2_4"  fromLane="0" toLane="0" tl="J2" linkIndex="12"/>
    <connection from="3_J2" to="J2_J3" fromLane="0" toLane="0" tl="J2" linkIndex="13"/>
    <connection from="3_J2" to="J2_J3" fromLane="1" toLane="1" tl="J2" linkIndex="14"/>
    <connection from="3_J2" to="J2_J1"  fromLane="1" toLane="1" tl="J2" linkIndex="15"/>

    <connection from="J4_J3"  to="J3_J2" fromLane="0" toLane="0" tl="J3" linkIndex="0"/>
    <connection from="J4_J3"  to="J3_5"  fromLane="0" toLane="0" tl="J3" linkIndex="1"/>
    <connection from="J4_J3"  to="J3_5"  fromLane="1" toLane="1" tl="J3" linkIndex="2"/>
    <connection from="J4_J3"  to="J3_6" fromLane="1" toLane="1" tl="J3" linkIndex="3"/>
    <connection from="5_J3"  to="J3_6" fromLane="0" toLane="0" tl="J3" linkIndex="4"/>
    <connection from="5_J3"  to="J3_J4"  fromLane="0" toLane="0" tl="J3" linkIndex="5"/>
    <connection from="5_J3"  to="J3_J4"  fromLane="1" toLane="1" tl="J3" linkIndex="6"/>
    <connection from="5_J3"  to="J3_J2" fromLane="1" toLane="1" tl="J3" linkIndex="7"/>
    <connection from="6_J3" to="J3_J4"  fromLane="0" toLane="0" tl="J3" linkIndex="8"/>
    <connection from="6_J3" to="J3_J2" fromLane="0" toLane="0" tl="J3" linkIndex="9"/>
    <connection from="6_J3" to="J3_J2" fromLane="1" toLane="1" tl="J3" linkIndex="10"/>
    <connection from="6_J3" to="J3_5"  fromLane="1" toLane="1" tl="J3" linkIndex="11"/>
    <connection from="J2_J3" to="J3_5"  fromLane="0" toLane="0" tl="J3" linkIndex="12"/>
    <connection from="J2_J3" to="J3_6" fromLane="0" toLane="0" tl="J3" linkIndex="13"/>
    <connection from="J2_J3" to="J3_6" fromLane="1" toLane="1" tl="J3" linkIndex="14"/>
    <connection from="J2_J3" to="J3_J4"  fromLane="1" toLane="1" tl="J3" linkIndex="15"/>

    <connection from="8_J4"  to="J4_J1" fromLane="0" toLane="0" tl="J4" linkIndex="0"/>
    <connection from="8_J4"  to="J4_J3"  fromLane="0" toLane="0" tl="J4" linkIndex="1"/>
    <connection from="8_J4"  to="J4_J3"  fromLane="1" toLane="1" tl="J4" linkIndex="2"/>
    <connection from="8_J4"  to="J4_7" fromLane="1" toLane="1" tl="J4" linkIndex="3"/>
    <connection from="J3_J4"  to="J4_7" fromLane="0" toLane="0" tl="J4" linkIndex="4"/>
    <connection from="J3_J4"  to="J4_8"  fromLane="0" toLane="0" tl="J4" linkIndex="5"/>
    <connection from="J3_J4"  to="J4_8"  fromLane="1" toLane="1" tl="J4" linkIndex="6"/>
    <connection from="J3_J4"  to="J4_J1" fromLane="1" toLane="1" tl="J4" linkIndex="7"/>
    <connection from="7_J4" to="J4_8"  fromLane="0" toLane="0" tl="J4" linkIndex="8"/>
    <connection from="7_J4" to="J4_J1" fromLane="0" toLane="0" tl="J4" linkIndex="9"/>
    <connection from="7_J4" to="J4_J1" fromLane="1" toLane="1" tl="J4" linkIndex="10"/>
    <connection from="7_J4" to="J4_J3"  fromLane="1" toLane="1" tl="J4" linkIndex="11"/>
    <connection from="J1_J4" to="J4_J3"  fromLane="0" toLane="0" tl="J4" linkIndex="12"/>
    <connection from="J1_J4" to="J4_7" fromLane="0" toLane="0" tl="J4" linkIndex="13"/>
    <connection from="J1_J4" to="J4_7" fromLane="1" toLane="1" tl="J4" linkIndex="14"/>
    <connection from="J1_J4" to="J4_8"  fromLane="1" toLane="1" tl="J4" linkIndex="15"/>
</connections>
